Version 4.1
SHEET 1 996 916
WIRE -512 -192 -512 -240
WIRE -352 -192 -352 -240
WIRE 32 -144 -16 -144
WIRE 768 -80 688 -80
WIRE 896 -80 848 -80
WIRE -640 -64 -880 -64
WIRE -512 -48 -512 -112
WIRE -352 -48 -352 -112
WIRE -880 -16 -880 -64
WIRE -16 -16 -16 -144
WIRE 32 -16 -16 -16
WIRE 0 0 -48 0
WIRE 224 16 64 16
WIRE 320 16 224 16
WIRE 688 16 688 -80
WIRE 688 16 400 16
WIRE 0 32 -304 32
WIRE 32 48 -16 48
WIRE 224 48 224 16
WIRE 768 48 720 48
WIRE 896 80 896 -80
WIRE -304 112 -304 32
WIRE -640 128 -640 -64
WIRE -640 128 -736 128
WIRE -544 128 -640 128
WIRE -736 160 -736 128
WIRE -544 160 -544 128
WIRE -16 176 -16 48
WIRE 32 176 -16 176
WIRE 720 192 720 48
WIRE 768 192 720 192
WIRE 688 208 688 16
WIRE 736 208 688 208
WIRE 896 224 896 144
WIRE 896 224 800 224
WIRE 992 224 896 224
WIRE 736 240 688 240
WIRE -48 256 -48 0
WIRE 224 256 224 128
WIRE 224 256 -48 256
WIRE 768 256 736 256
WIRE 224 272 224 256
WIRE -736 288 -736 240
WIRE -688 288 -736 288
WIRE -544 288 -544 240
WIRE -544 288 -576 288
WIRE -736 336 -736 288
WIRE -544 352 -544 288
WIRE 224 368 224 352
WIRE 224 368 -48 368
WIRE 736 400 736 256
WIRE 768 400 736 400
WIRE 32 448 -16 448
WIRE -736 464 -736 416
WIRE -640 464 -736 464
WIRE -544 464 -544 432
WIRE -544 464 -640 464
WIRE 224 480 224 368
WIRE -880 560 -880 64
WIRE -752 560 -880 560
WIRE -640 560 -640 464
WIRE -640 560 -752 560
WIRE -752 592 -752 560
WIRE -16 592 -16 448
WIRE 32 592 -16 592
WIRE -48 608 -48 368
WIRE 0 608 -48 608
WIRE 224 624 224 560
WIRE 224 624 64 624
WIRE 320 624 224 624
WIRE 688 624 688 240
WIRE 688 624 400 624
WIRE 768 624 688 624
WIRE 912 624 848 624
WIRE -304 640 -304 192
WIRE 0 640 -304 640
WIRE 32 656 -16 656
WIRE 912 672 912 624
WIRE -16 800 -16 656
WIRE 32 800 -16 800
FLAG -352 -48 0
FLAG -512 -240 0
FLAG -352 -240 V_pos
FLAG -512 -48 V_nev
FLAG 912 672 0
FLAG -752 592 0
FLAG -688 288 Vb
FLAG -576 288 Va
FLAG 32 176 V_nev
FLAG 32 -144 V_pos
FLAG 32 800 V_nev
FLAG 768 400 V_nev
FLAG 768 48 V_pos
FLAG 32 448 V_pos
SYMBOL OpAmps\\LT1793 32 -48 R0
SYMATTR InstName U1
SYMBOL OpAmps\\LT1793 32 560 R0
SYMATTR InstName U2
SYMBOL OpAmps\\LT1793 768 160 R0
SYMATTR InstName U3
SYMBOL voltage -352 -208 R0
SYMATTR InstName V1
SYMATTR Value 5
SYMBOL voltage -512 -208 R0
WINDOW 123 0 0 Left 0
WINDOW 39 0 0 Left 0
SYMATTR InstName V2
SYMATTR Value 5
SYMBOL res 208 32 R0
SYMATTR InstName R1
SYMATTR Value {R1}
SYMBOL res 208 256 R0
SYMATTR InstName R2
SYMATTR Value {Rg}
SYMBOL res 208 464 R0
SYMATTR InstName R3
SYMATTR Value {R1}
SYMBOL res 416 0 R90
WINDOW 0 0 56 VBottom 2
WINDOW 3 32 56 VTop 2
SYMATTR InstName R4
SYMATTR Value {R2}
SYMBOL res 864 -96 R90
WINDOW 0 0 56 VBottom 2
WINDOW 3 32 56 VTop 2
SYMATTR InstName R5
SYMATTR Value {R3}
SYMBOL res 416 608 R90
WINDOW 0 0 56 VBottom 2
WINDOW 3 32 56 VTop 2
SYMATTR InstName R6
SYMATTR Value {R2}
SYMBOL res 864 608 R90
WINDOW 0 0 56 VBottom 2
WINDOW 3 32 56 VTop 2
SYMATTR InstName R7
SYMATTR Value {R3}
SYMBOL res -752 144 R0
SYMATTR InstName R8
SYMATTR Value 8.83k
SYMBOL res -752 320 R0
SYMATTR InstName R9
SYMATTR Value 8.85k
SYMBOL res -560 144 R0
SYMATTR InstName R10
SYMATTR Value 8.8k
SYMBOL res -560 336 R0
SYMATTR InstName R11
SYMATTR Value 8.8k
SYMBOL voltage -880 -32 R0
SYMATTR InstName V5
SYMATTR Value 5V
SYMBOL voltage -304 96 R0
SYMATTR InstName V3
SYMATTR Value 2.04
SYMBOL cap 880 80 R0
SYMATTR InstName C2
SYMATTR Value 0.22ｵ
SYMBOL cap 16 80 R0
SYMATTR InstName C1
SYMATTR Value {Cbp}
SYMBOL cap 16 -112 R0
SYMATTR InstName C3
SYMATTR Value {Cbp}
SYMBOL cap 16 704 R0
SYMATTR InstName C4
SYMATTR Value {Cbp}
SYMBOL cap 752 304 R0
SYMATTR InstName C5
SYMATTR Value {Cbp}
SYMBOL cap 752 80 R0
SYMATTR InstName C6
SYMATTR Value {Cbp}
SYMBOL cap 16 480 R0
SYMATTR InstName C7
SYMATTR Value {Cbp}
TEXT 160 -264 Left 2 !.param R1=10K\n.param R2=10k\n.param R3=10k\n.param Rg=20k\n.param Rg2=10k\n.param Cbp=4.7u
TEXT -912 632 Left 2 !.tran 0.1
