Version 4.1
SHEET 1 880 680
WIRE 192 -192 80 -192
WIRE 80 -144 80 -192
WIRE 80 -48 80 -64
WIRE -240 0 -352 0
WIRE 176 32 80 32
WIRE 304 32 256 32
WIRE -352 48 -352 0
WIRE 192 128 192 -192
WIRE -240 144 -240 0
WIRE -192 144 -240 144
WIRE 80 144 80 32
WIRE 80 144 -112 144
WIRE 160 144 80 144
WIRE 304 160 304 32
WIRE 304 160 224 160
WIRE 464 160 304 160
WIRE 576 160 464 160
WIRE -96 176 -320 176
WIRE 80 176 -16 176
WIRE 160 176 80 176
WIRE -320 208 -320 176
WIRE 80 240 80 176
WIRE 320 288 272 288
WIRE 464 288 464 240
WIRE 272 304 272 288
WIRE 320 336 320 288
WIRE 80 368 80 320
WIRE 192 448 192 192
WIRE 320 448 320 416
WIRE 320 448 192 448
FLAG 80 368 0
FLAG 80 -48 0
FLAG 272 304 0
FLAG -352 128 0
FLAG -320 288 0
FLAG 464 288 0
SYMBOL OpAmps\\LT1793 192 96 R0
SYMATTR InstName U1
SYMBOL res 64 224 R0
SYMATTR InstName R3
SYMATTR Value 20k
SYMBOL res -96 128 R90
WINDOW 0 0 56 VBottom 2
WINDOW 3 32 56 VTop 2
SYMATTR InstName R1
SYMATTR Value 1k
SYMBOL res 0 160 R90
WINDOW 0 0 56 VBottom 2
WINDOW 3 32 56 VTop 2
SYMATTR InstName R2
SYMATTR Value 1k
SYMBOL res 272 16 R90
WINDOW 0 0 56 VBottom 2
WINDOW 3 32 56 VTop 2
SYMATTR InstName R4
SYMATTR Value 20k
SYMBOL voltage 80 -160 R0
SYMATTR InstName V_rail_+
SYMATTR Value 12
SYMBOL voltage 320 320 R0
WINDOW 123 0 0 Left 0
WINDOW 39 0 0 Left 0
SYMATTR InstName V_rail_-
SYMATTR Value 12
SYMBOL res 448 144 R0
SYMATTR InstName R_load
SYMATTR Value 100
SYMBOL voltage -352 32 R0
WINDOW 123 0 0 Left 0
WINDOW 39 0 0 Left 0
SYMATTR InstName V1
SYMATTR Value SINE(0 0.625 1k)
SYMBOL voltage -320 192 R0
WINDOW 123 0 0 Left 0
WINDOW 39 0 0 Left 0
SYMATTR InstName V2
SYMATTR Value SINE(0 0.125 1k)
TEXT -384 456 Left 2 !.tran 20ms
