Version 4.1
SHEET 1 1008 680
WIRE 64 -64 -144 -64
WIRE 64 -32 64 -64
WIRE 304 -32 64 -32
WIRE -144 16 -144 -64
WIRE 64 64 64 48
WIRE 112 64 64 64
WIRE 304 64 304 48
WIRE 304 64 272 64
WIRE 64 80 64 64
WIRE 304 80 304 64
WIRE 160 160 64 160
WIRE 304 160 160 160
WIRE -144 256 -144 96
WIRE -16 256 -144 256
WIRE 160 256 160 160
WIRE 160 256 -16 256
WIRE -16 272 -16 256
FLAG -16 272 0
FLAG 112 64 Va
IOPIN 112 64 Out
FLAG 272 64 Vb
IOPIN 272 64 Out
SYMBOL voltage -144 0 R0
WINDOW 123 0 0 Left 0
WINDOW 39 0 0 Left 0
SYMATTR InstName V1
SYMATTR Value 10
SYMBOL res 48 -48 R0
SYMATTR InstName R1
SYMATTR Value {R0}
SYMBOL res 48 64 R0
SYMATTR InstName R2
SYMATTR Value {R0}
SYMBOL res 288 64 R0
SYMATTR InstName R_s
SYMATTR Value {RS}
SYMBOL res 288 -48 R0
SYMATTR InstName R3
SYMATTR Value {RT}
TEXT 584 -64 Left 2 ;R0 = 120 Ohm @ 20o C \n     = 255 Ohm @ -50o C\n     = 1405 Ohm @ 800o C\nR(2% strain) = 415 Ohm @ 20o C\n                       = 298 Ohm @ -50o C \n                       = 1650 Ohm @ 800o C
TEXT -8 -240 Left 2 !.param R0=120\n.param RS=255\n.param RT=255\n.param strain=0
TEXT -176 296 Left 2 !.tran 1
